61739
  -OEChem-07312005093D

  2  1  0     0  0  0  0  0  0999 V2000
    0.8369    0.0000    0.0000 Cl  0  0  0  0  0  0  0  0  0  0  0  0
   -0.8369    0.0000    0.0000 O   0  5  0  0  0  0  0  0  0  0  0  0
  1  2  1  0  0  0  0
M  CHG  1   2  -1
M  END
> <PUBCHEM_COMPOUND_CID>
61739

> <PUBCHEM_CONFORMER_RMSD>
0.4

> <PUBCHEM_CONFORMER_DIVERSEORDER>
1

> <PUBCHEM_MMFF94_PARTIAL_CHARGES>
2
1 0.3
2 -0.55

> <PUBCHEM_EFFECTIVE_ROTOR_COUNT>
0

> <PUBCHEM_PHARMACOPHORE_FEATURES>
0

> <PUBCHEM_HEAVY_ATOM_COUNT>
2

> <PUBCHEM_ATOM_DEF_STEREO_COUNT>
0

> <PUBCHEM_ATOM_UDEF_STEREO_COUNT>
0

> <PUBCHEM_BOND_DEF_STEREO_COUNT>
0

> <PUBCHEM_BOND_UDEF_STEREO_COUNT>
0

> <PUBCHEM_ISOTOPIC_ATOM_COUNT>
0

> <PUBCHEM_COMPONENT_COUNT>
1

> <PUBCHEM_CACTVS_TAUTO_COUNT>
1

> <PUBCHEM_CONFORMER_ID>
0000F12B00000001

> <PUBCHEM_MMFF94_ENERGY>
0

> <PUBCHEM_FEATURE_SELFOVERLAP>
0

> <PUBCHEM_SHAPE_FINGERPRINT>
21015797 1 18122624130615029670
260 1 18410856564050801414

> <PUBCHEM_SHAPE_MULTIPOLES>
37.16
1.26
0.59
0.59
0.04
0
0
0
0
-0.06
0
-0.06
0
0

> <PUBCHEM_SHAPE_SELFOVERLAP>
45.544

> <PUBCHEM_SHAPE_VOLUME>
32.1

> <PUBCHEM_COORDINATE_TYPE>
2
5
10

$$$$
